Circuit: * W:\ELV\Wechselspannungsverstärker5Vfinal.asc

WARNING: Node N003 is floating.

WARNING: Less than two connections to node N003.  This node is used by C3.
WARNING: Less than two connections to node NC_01.  This node is used by R6.
Direct Newton iteration for .op point succeeded.

Date: Wed Jun 02 09:54:52 2021
Total elapsed time: 0.168 seconds.

tnom = 27
temp = 27
method = modified trap
totiter = 2091
traniter = 2082
tranpoints = 1042
accept = 1042
rejected = 0
matrix size = 12
fillins = 0
solver = Normal
Matrix Compiler1: 624 bytes object code size  0.1/0.1/[0.1]
Matrix Compiler2: off  [0.1]/0.1/0.1

