Circuit: * D:\Projekte\Heise-PAD\Simulationen\9. Schmitt-Trigger\Projekt_9_Schmitt-Trigger.asc

.OP point found by inspection.

Date: Fri Jun 04 13:13:11 2021
Total elapsed time: 0.131 seconds.

tnom = 27
temp = 27
method = modified trap
totiter = 3194
traniter = 3194
tranpoints = 1369
accept = 1275
rejected = 94
matrix size = 19
fillins = 9
solver = Normal
Matrix Compiler1: 1.61 KB object code size  0.5/0.2/[0.1]
Matrix Compiler2: 1.66 KB object code size  0.1/0.2/[0.1]

