Circuit: * D:\Projekte\Heise-PAD\Simulationen\7. Zeitautomat aka monostabile Kippstufe - Monoflop\Monostabile_Kippstufe.asc

.OP point found by inspection.

Date: Fri Jun 04 08:16:32 2021
Total elapsed time: 0.178 seconds.

tnom = 27
temp = 27
method = modified trap
totiter = 5707
traniter = 5707
tranpoints = 2359
accept = 2107
rejected = 252
matrix size = 18
fillins = 6
solver = Normal
Matrix Compiler1: 1.39 KB object code size  0.4/0.2/[0.2]
Matrix Compiler2: 1.54 KB object code size  0.1/0.2/[0.1]

