Circuit: * D:\Projekte\Heise-PAD\Simulationen\6. Bistabile Kippstufe aka Flip Flop\Projekt_6_Bistabile_Kippstufe_aka_Flip_Flop_1.asc

Direct Newton iteration for .op point succeeded.

Date: Fri Jun 04 08:14:46 2021
Total elapsed time: 3.210 seconds.

tnom = 27
temp = 27
method = modified trap
totiter = 202645
traniter = 202639
tranpoints = 101027
accept = 100823
rejected = 204
matrix size = 22
fillins = 6
solver = Normal
Matrix Compiler1: 1.51 KB object code size  0.5/0.2/[0.1]
Matrix Compiler2: 1.76 KB object code size  0.2/0.2/[0.1]

