Circuit: * D:\Projekte\Heise-PAD\Simulationen\6. Bistabile Kippstufe aka Flip Flop\Projekt_6_Bistabile_Kippstufe_aka_Flip_Flop_2.asc

Direct Newton iteration for .op point succeeded.

Date: Fri Jun 04 08:14:20 2021
Total elapsed time: 3.334 seconds.

tnom = 27
temp = 27
method = modified trap
totiter = 203384
traniter = 203374
tranpoints = 101057
accept = 100838
rejected = 219
matrix size = 22
fillins = 6
solver = Normal
Matrix Compiler1: 1.51 KB object code size  0.3/0.2/[0.2]
Matrix Compiler2: 1.76 KB object code size  0.2/0.2/[0.2]

