Circuit: * D:\Projekte\Heise-PAD\Simulationen\11. Hardwareentprellung von Tastern mit Widerstand und Kondensatoren\Hardwareentprellung_mit_RC_Glied.asc

Direct Newton iteration for .op point succeeded.

Date: Fri Jun 04 13:24:45 2021
Total elapsed time: 0.104 seconds.

tnom = 27
temp = 27
method = modified trap
totiter = 3837
traniter = 3816
tranpoints = 1906
accept = 1761
rejected = 145
matrix size = 12
fillins = 0
solver = Normal
Matrix Compiler1: 606 bytes object code size  0.2/0.1/[0.1]
Matrix Compiler2: 866 bytes object code size  0.1/0.1/[0.1]

