Circuit: * D:\Projekte\Heise-PAD\Simulationen\8. Astabiler Multivibrator\Projekt_8_Astabiler_Multivibrator.asc

.OP point found by inspection.

Date: Fri Jun 04 13:04:12 2021
Total elapsed time: 0.339 seconds.

tnom = 27
temp = 27
method = modified trap
totiter = 19991
traniter = 19991
tranpoints = 5124
accept = 4090
rejected = 1034
matrix size = 19
fillins = 10
solver = Normal
Matrix Compiler1: 1.72 KB object code size  0.5/0.2/[0.1]
Matrix Compiler2: 1.74 KB object code size  0.1/0.3/[0.1]

