Circuit: * D:\Projekte\Heise-PAD\Simulationen\12. MOSFET als Schalter\Projekt_12_MOSFET_als_Schalter.asc

Direct Newton iteration for .op point succeeded.

Date: Fri Jun 04 13:42:36 2021
Total elapsed time: 0.140 seconds.

tnom = 27
temp = 27
method = modified trap
totiter = 3913
traniter = 3894
tranpoints = 1668
accept = 1551
rejected = 117
matrix size = 19
fillins = 0
solver = Normal
Matrix Compiler1: 912 bytes object code size  0.3/0.1/[0.1]
Matrix Compiler2: 1.38 KB object code size  0.1/0.2/[0.1]

